Version 4
SHEET 1 1368 856
WIRE -288 -384 -528 -384
WIRE -160 -384 -288 -384
WIRE -96 -384 -160 -384
WIRE 64 -384 -16 -384
WIRE 304 -384 64 -384
WIRE 448 -384 304 -384
WIRE 528 -384 448 -384
WIRE 688 -384 608 -384
WIRE -160 -352 -160 -384
WIRE 64 -352 64 -384
WIRE -528 -336 -528 -384
WIRE -288 -320 -288 -384
WIRE 304 -304 304 -384
WIRE 384 -304 304 -304
WIRE 688 -288 688 -384
WIRE -160 -240 -160 -288
WIRE -48 -240 -160 -240
WIRE 64 -240 64 -288
WIRE 64 -240 -48 -240
WIRE 304 -240 304 -304
WIRE -528 -208 -528 -256
WIRE -448 -208 -528 -208
WIRE -288 -208 -288 -240
WIRE -288 -208 -384 -208
WIRE -48 -208 -48 -240
WIRE 384 -160 384 -304
WIRE -528 -144 -528 -208
WIRE -112 -144 -528 -144
WIRE 0 -144 -48 -144
WIRE 96 -144 0 -144
WIRE 192 -144 176 -144
WIRE 688 -128 688 -208
WIRE 0 -80 0 -144
WIRE 0 -80 -96 -80
WIRE -288 -64 -288 -208
WIRE -224 -64 -288 -64
WIRE -144 -64 -160 -64
WIRE 192 -64 192 -144
WIRE 64 -48 64 -240
WIRE 144 -48 64 -48
WIRE -96 -32 -96 -80
WIRE -528 48 -528 -144
WIRE -288 48 -288 -64
WIRE -96 80 -96 48
WIRE 16 80 -96 80
WIRE 208 80 208 32
WIRE 304 80 304 -160
WIRE 304 80 208 80
WIRE -576 96 -672 96
WIRE -336 96 -368 96
WIRE 16 96 16 80
WIRE -96 112 -96 80
WIRE 256 160 256 -16
WIRE 512 160 256 160
WIRE -560 176 -560 144
WIRE -416 176 -560 176
WIRE -320 176 -320 144
WIRE -320 176 -416 176
WIRE 736 176 656 176
WIRE -368 208 -368 96
WIRE -256 208 -368 208
WIRE 656 208 656 176
WIRE 656 208 592 208
WIRE 704 208 656 208
WIRE 16 224 16 176
WIRE 384 224 384 -80
WIRE 384 224 208 224
WIRE 592 224 592 208
WIRE 704 224 704 208
WIRE 208 240 208 224
WIRE -816 272 -864 272
WIRE -672 272 -672 96
WIRE -672 272 -752 272
WIRE -592 272 -672 272
WIRE -416 272 -416 256
WIRE -416 272 -512 272
WIRE -352 272 -416 272
WIRE 448 272 448 -384
WIRE 512 272 512 240
WIRE 512 272 448 272
WIRE -352 288 -352 272
WIRE -256 288 -256 208
WIRE -256 288 -272 288
WIRE -224 288 -256 288
WIRE 352 288 256 288
WIRE 512 304 512 272
WIRE -224 320 -224 288
WIRE 64 320 64 -48
WIRE 144 320 64 320
WIRE 592 320 592 304
WIRE 640 320 592 320
WIRE 704 320 704 304
WIRE 704 320 640 320
WIRE -416 336 -416 272
WIRE 640 336 640 320
WIRE -144 368 -144 -64
WIRE -96 368 -96 192
WIRE -96 368 -144 368
WIRE -16 368 -96 368
WIRE 192 368 192 336
WIRE 192 368 64 368
WIRE 352 384 352 288
WIRE 512 384 352 384
WIRE -864 400 -864 272
WIRE -416 448 -416 416
WIRE -416 448 -592 448
WIRE -224 448 -224 384
WIRE -224 448 -416 448
WIRE -592 480 -592 448
WIRE -416 496 -416 448
WIRE -224 528 -224 448
WIRE -128 528 -224 528
WIRE 48 528 -48 528
WIRE -592 592 -592 544
WIRE -864 768 -864 480
WIRE -720 768 -864 768
WIRE -592 768 -592 672
WIRE -592 768 -720 768
WIRE -416 768 -416 576
WIRE -416 768 -592 768
WIRE -720 800 -720 768
FLAG 640 336 0
FLAG 736 176 LOAD
IOPIN 736 176 Out
FLAG 16 224 0
FLAG -720 800 0
FLAG -48 -208 0
FLAG 688 -128 0
FLAG 48 528 LOAD
IOPIN 48 528 Out
SYMBOL tetrode 208 -16 R90
WINDOW 0 -49 -82 VRight 0
WINDOW 3 -24 -112 VRight 0
SYMATTR InstName U1
SYMATTR Value 6CA7
SYMBOL tetrode 208 288 M270
WINDOW 0 -21 -60 VLeft 0
WINDOW 3 -46 -61 VLeft 0
SYMATTR InstName U2
SYMATTR Value 6CA7
SYMBOL ind2 496 144 R0
WINDOW 0 -28 45 Left 0
WINDOW 3 -32 75 Left 0
SYMATTR InstName L1
SYMATTR Value 50H
SYMATTR Type ind
SYMATTR SpiceLine Rser=61 Cpar=240p
SYMBOL ind2 496 288 R0
WINDOW 0 -29 37 Left 0
WINDOW 3 -31 66 Left 0
SYMATTR InstName L2
SYMATTR Value 50H
SYMATTR Type ind
SYMATTR SpiceLine Rser=64 Cpar=240p
SYMBOL ind2 608 320 R180
WINDOW 0 -32 67 Left 0
WINDOW 3 -67 42 Left 0
SYMATTR InstName L3
SYMATTR Value 0.47H
SYMATTR Type ind
SYMATTR SpiceLine Rser=0.7
SYMBOL res 688 208 R0
SYMATTR InstName R16
SYMATTR Value 8
SYMBOL triode -288 96 R0
WINDOW 0 -22 -70 Left 0
WINDOW 3 -51 -57 Left 0
SYMATTR InstName U3
SYMATTR Value NH12AT7
SYMBOL triode -528 96 R0
WINDOW 0 -24 -70 Left 0
WINDOW 3 -58 -57 Left 0
SYMATTR InstName U4
SYMATTR Value NH12AT7
SYMBOL cap -816 288 R270
WINDOW 0 32 32 VTop 2
WINDOW 3 0 32 VBottom 2
SYMATTR InstName C1
SYMATTR Value 22n
SYMBOL voltage -864 384 R0
WINDOW 123 24 132 Left 0
WINDOW 39 0 0 Left 0
WINDOW 3 24 96 Left 1
SYMATTR Value2 AC 1 0
SYMATTR InstName V1
SYMATTR Value SINE(0 1.3 200)
SYMBOL res -496 256 R90
WINDOW 0 0 56 VBottom 2
WINDOW 3 32 56 VTop 2
SYMATTR InstName R1
SYMATTR Value 1Meg
SYMBOL res -400 272 R180
WINDOW 0 36 76 Left 2
WINDOW 3 36 40 Left 1
SYMATTR InstName R3
SYMATTR Value 470R
SYMBOL res -400 432 R180
WINDOW 0 36 76 Left 2
WINDOW 3 36 40 Left 2
SYMATTR InstName R4
SYMATTR Value 10k
SYMBOL res -368 304 R270
WINDOW 0 32 56 VTop 2
WINDOW 3 0 56 VBottom 2
SYMATTR InstName R6
SYMATTR Value 1Meg
SYMBOL res -432 480 R0
SYMATTR InstName R5
SYMATTR Value 4k7
SYMBOL cap -240 320 R0
SYMATTR InstName C4
SYMATTR Value 100n
SYMBOL cap -608 480 R0
SYMATTR InstName C2
SYMATTR Value 100n
SYMBOL res -608 576 R0
SYMATTR InstName RV1
SYMATTR Value 22k
SYMBOL cap -160 -80 R90
WINDOW 0 0 32 VBottom 2
WINDOW 3 32 32 VTop 2
SYMATTR InstName C5
SYMATTR Value 22n
SYMBOL res -544 -352 R0
SYMATTR InstName R2
SYMATTR Value 82k
SYMBOL res -304 -336 R0
SYMATTR InstName R7
SYMATTR Value 100k
SYMBOL cap -48 -160 R90
WINDOW 0 0 32 VBottom 2
WINDOW 3 32 32 VTop 2
SYMATTR InstName C6
SYMATTR Value 22n
SYMBOL res 192 -160 R90
WINDOW 0 0 56 VBottom 2
WINDOW 3 32 56 VTop 2
SYMATTR InstName R13
SYMATTR Value 5k6
SYMBOL res -112 -48 R0
SYMATTR InstName R9
SYMATTR Value 150k
SYMBOL res -112 96 R0
WINDOW 3 36 76 Left 1
SYMATTR InstName R10
SYMATTR Value 150k
SYMBOL voltage 16 192 R180
WINDOW 0 24 96 Left 2
WINDOW 3 24 16 Left 1
WINDOW 123 0 0 Left 0
WINDOW 39 0 0 Left 0
SYMATTR InstName V2
SYMATTR Value 57
SYMBOL res 80 352 R90
WINDOW 0 0 56 VBottom 2
WINDOW 3 32 56 VTop 2
SYMATTR InstName R12
SYMATTR Value 5k6
SYMBOL res 288 -256 R0
SYMATTR InstName R15
SYMATTR Value 1k
SYMBOL res 400 -64 R180
WINDOW 0 36 76 Left 2
WINDOW 3 36 40 Left 2
SYMATTR InstName R14
SYMATTR Value 1k
SYMBOL ind 512 -368 R270
WINDOW 0 32 56 VTop 2
WINDOW 3 5 56 VBottom 2
SYMATTR InstName Choke
SYMATTR Value 120
SYMBOL cap -176 -352 R0
WINDOW 0 24 8 Left 1
SYMATTR InstName Cond1
SYMATTR Value 50µ
SYMBOL cap 48 -352 R0
WINDOW 0 24 8 Left 1
SYMATTR InstName Cond2
SYMATTR Value 50µ
SYMBOL voltage 688 -304 R0
WINDOW 123 0 0 Left 0
WINDOW 39 0 0 Left 0
SYMATTR InstName B++
SYMATTR Value 468
SYMBOL res -32 512 R90
WINDOW 0 0 56 VBottom 2
WINDOW 3 32 56 VTop 2
SYMATTR InstName R8
SYMATTR Value 100k
SYMBOL cap -384 -224 R90
WINDOW 0 0 32 VBottom 2
WINDOW 3 32 32 VTop 1
SYMATTR InstName C3
SYMATTR Value 47p
SYMBOL res 0 -400 R90
WINDOW 0 0 56 VBottom 2
WINDOW 3 32 56 VTop 2
SYMATTR InstName R11
SYMATTR Value 10k
TEXT 560 128 Left 0 !K1 L1 L2 L3 0.9995
TEXT -1128 352 Left 0 !.INC 6ca7.inc
TEXT -1136 376 Left 0 !.INC dmtriodep.inc
TEXT -1136 424 Left 0 !.tran 50mS
TEXT -1128 400 Left 0 !;op
TEXT -1128 448 Left 0 !;ac dec 50 1 1MEG
TEXT 0 560 Left 2 ;Realimentación
LINE Normal 544 384 544 160
LINE Normal 560 387 560 160
